test/data/opendss_solutions/case2_diag_solution.json
{
  "objective_lb": null,
  "optimizer": "Ipopt",
  "termination_status": "LOCALLY_SOLVED",
  "dual_status": "FEASIBLE_POINT",
  "primal_status": "FEASIBLE_POINT",
  "objective": 0.018208966417306887,
  "solution": {
    "data": {
      "voltage_source": {
        "source": {
          "qg_bus": [
            0.06965549488346373,
            0.06965558583297829,
            0.06965558583293442
          ],
          "qg": [
            0.06965549488346373,
            0.06965558583297829,
            0.06965558583293442
          ],
          "pg": [
            6.0696554774094125,
            6.069655469948758,
            6.069655469948715
          ],
          "pg_bus": [
            6.0696554774094125,
            6.069655469948758,
            6.069655469948715
          ]
        }
      },
      "line": {
        "ohline": {
          "qf": [
            0.06965544647888453,
            0.06965544647892896,
            0.06965544647888558
          ],
          "qt": [
            1.504632769052528e-31,
            -1.88079096131566e-30,
            -9.027796614315168e-31
          ],
          "pt": [
            -6.000000000000001,
            -6.000000000000001,
            -6.000000000000001
          ],
          "pf": [
            6.069655446478885,
            6.069655446478929,
            6.069655446478887
          ]
        }
      },
      "settings": {
        "sbase": 100000.0
      },
      "load": {
        "l2": {
          "qd_bus": [
            0.0
          ],
          "pd_bus": [
            6.000000000000001
          ],
          "qd": [
            0.0
          ],
          "pd": [
            6.000000000000001
          ]
        },
        "l3": {
          "qd_bus": [
            0.0
          ],
          "pd_bus": [
            6.000000000000001
          ],
          "qd": [
            0.0
          ],
          "pd": [
            6.000000000000001
          ]
        },
        "l1": {
          "qd_bus": [
            0.0
          ],
          "pd_bus": [
            6.000000000000001
          ],
          "qd": [
            0.0
          ],
          "pd": [
            6.000000000000001
          ]
        }
      },
      "bus": {
        "primary": {
          "va": [
            -0.6574992811241716,
            -120.65749928112415,
            119.34250071887585
          ],
          "vm": [
            0.22733887690261248,
            0.22733887690261242,
            0.22733887690261242
          ]
        },
        "sourcebus": {
          "va": [
            -1.0175698033058944e-6,
            -120.00000101756979,
            119.99999898243023
          ],
          "vm": [
            0.22999325216326374,
            0.22999325216326372,
            0.22999325216326372
          ]
        }
      },
      "per_unit": false
    }
  },
  "solve_time": 6.226999998092651
}
